<?xml version='1.0' encoding='UTF-8'?>
<configuration xmlns:xsi="http://www.w3.org/2001/XMLSchema-instance" xsi:noNamespaceSchemaLocation="http://sumo.dlr.de/xsd/sumoConfiguration.xsd">
  <input>
    <net-file value="ring_example_20190424-2048001556153280.685167.net.xml"/>
    <route-files value="ring_example_20190424-2048001556153280.685167.rou.xml"/>
    <gui-settings-file value="ring_example_20190424-2048001556153280.685167.gui.cfg"/>
  </input>
  <time>
    <begin value="0"/>
    <step-length value="0.1"/>
  </time>

  <gui_only>
    <quit-on-end value="true"/>
    <start value="true"/>
  </gui_only>

  <processing>
    <step-method.ballistic value="false"/>
    <collision.check-junctions value="true"/>
    <collision.action value="warn"/>
  </processing>

  <random_number>
    <random value="true"/>

  </random_number>

  <report>
    <verbose value="false"/>
  </report>
  <traci_server>
	<remote-port value="8853"/>
  </traci_server>

</configuration>
