<?xml version='1.0' encoding='UTF-8'?>
<configuration xmlns:xsi="http://www.w3.org/2001/XMLSchema-instance" xsi:noNamespaceSchemaLocation="http://sumo.dlr.de/xsd/sumoConfiguration.xsd">
  <input>
    <net-file value="ring_example_20190912-1246031568277963.025501.net.xml"/>
    <route-files value="ring_example_20190912-1246031568277963.025501.rou.xml"/>
    <additional-files value="ring_example_20190912-1246031568277963.025501.add.xml"/>
    <gui-settings-file value="ring_example_20190912-1246031568277963.025501.gui.cfg"/>
  </input>
  <time>
    <begin value="0"/>
    <step-length value="0.1"/>
  </time>
  <random_number>
    <random value="false"/>
  </random_number>
  <traci_server>
	<remote-port value="8815"/>
  </traci_server>
  <gui_only>
	<quit-on-end value="true"/>
	<start value="true"/>
  </gui_only>
  <processing>
	<collision.action value="warn"/>

  </processing>

</configuration>
